/*--------------------------------*- C++ -*----------------------------------*\
  =========                 |
  \\      /  F ield         | OpenFOAM: The Open Source CFD Toolbox
   \\    /   O peration     | Website:  https://openfoam.org
    \\  /    A nd           | Version:  6
     \\/     M anipulation  |
\*---------------------------------------------------------------------------*/
FoamFile
{
    version     2.0;
    format      ascii;
    class       dictionary;
    location    "system";
    object      controlDict;
}
// * * * * * * * * * * * * * * * * * * * * * * * * * * * * * * * * * * * * * //

application     simpleFoam;

startFrom       latestTime;

startTime       0;

stopAt          endTime;

endTime         1000;

deltaT          1;

writeControl    timeStep;

writeInterval   100;

purgeWrite      1;

writeFormat     ascii;

writePrecision  6;

writeCompression off;

timeFormat      general;

timePrecision   6;

runTimeModifiable true;

functions
{

  yPlus1
  {
      type        yPlus;
      libs        ("fieldFunctionObjects");
      writeControl    timeStep;
      writeInterval   100;
  }


  forces
  {
    type forces;
    libs ("libforces.so");
    patches (Wall_imp); // sum the forces and moments on those patches
    writeControl timeStep;
    writeInterval 1;
    p p;
    U U;
    log true;
    rhoInf 1000;
    rho rhoInf;
    CofR (0 0 0); //centreOfRotation
  }

}


// ************************************************************************* //
